ELEMENTS
O  H  C  N  AR
END
SPECIES
H2      H       O       O2      OH      H2O     HO2     H2O2
C       CH      CH2     CH2*    CH3     CH4     CO      CO2
HCO     CH2O    CH2OH   CH3O    CH3OH   C2H     C2H2    C2H3
C2H4    C2H5    C2H6    HCCO    CH2CO   HCCOH   AR      C2H3O
N2
C2O     C3H2    C3H3    PC3H4   AC3H4   C4H     C4H2    H2C4O
n-C4H3  i-C4H3  C4H4    n-C4H5  i-C4H5  C4H6    C4H612
C5H2    C5H3    C6H     C6H2
C6H3    l-C6H4  c-C6H4  n-C6H5  i-C6H5  l-C6H6  n-C6H7  i-C6H7
c-C6H7  C6H8    A1      A1- 
C6H5O C6H5OH C5H6 C5H5 C5H5O C5H4OH C5H4O
n-A1C2H2 i-A1C2H2 A1C2H3 A1C2H3* A1C2H A1C2H* A1C2H- A1C2H)2  A1C2HC2H2
A2 A2-1 A2-2 naphthyne A2C2HA A2C2HB A2C2HA* A2C2HB* A2C2H2 A2C2H)2
A3-1 A3-4 A3 A3C2H A3C2H2 A4 P2 P2- P2-H A4- A2R5 A2R5-
END
