ELEMENTS
O  H  C  N  AR
END
SPECIES
H2      H       O       O2      OH      H2O     HO2     H2O2
C       CH      CH2     CH2*    CH3     CH4     CO      CO2
HCO     CH2O    CH2OH   CH3O    CH3OH   C2H     C2H2    C2H3
C2H4    C2H5    C2H6    HCCO    CH2CO   HCCOH   AR      C2H3O
!
N2
C2O     C3H2    C3H3    PC3H4   AC3H4   C4H     C4H2    H2C4O
n-C4H3  i-C4H3  C4H4    n-C4H5  i-C4H5  C4H6    C4H612
C5H2    C5H3    C6H     C6H2
C6H3    l-C6H4  c-C6H4  n-C6H5  i-C6H5  l-C6H6  n-C6H7  i-C6H7
c-C6H7  C6H8    A1      A1- 
C6H5O C6H5OH C5H6 C5H5 C5H5O C5H4OH  C5H4O
n-A1C2H2 i-A1C2H2 A1C2H3 A1C2H3* A1C2H A1C2H* A1C2H- A1C2H)2 ! A1C2HC2H2
A2 A2-1 A2-2 naphthyne A2C2HA A2C2HB A2C2HA* A2C2HB* A2C2H2 A2C2H)2
A3-1 A3-4 A3 A3C2H A3C2H2 A4 P2 P2- P2-H A4- A2R5  A2R5-
END
REACTIONS
!=========================================================================!
!                                                                         !
! C1 and C2 chemistry is taken from GRI-MECH version 1.2                  !
!                                                                         !
! Changes:                                                                !
!                                                                         !
! (1) C2H + H2 = C2H2 + H  --->   k updated based on new measurments      !
!                                                                         !
! (2) CH2 + O2 = HCO + OH  --->   CH2 + O2 = CO2 + H + H with the same    !
!                                 rate coefficient.                       !
!                                                                         !
!     reason: to boost CO2 and H concentration                            !
!                                                                         !
! (3) C2H3 + O2 = HCO + CH2O ---> rate coefficient of Bozelli-Dean used.  !
!                                                                         !
!     additional reaction channels for C2H3O added.                       !
!                                                                         !
!     reason: to properly account for C2H3 oxidation near main flame zone !
!                                                                         !
!=========================================================================!
!
! GRI-Mech Version 1.2  released 11/16/94   CHEMKIN-II format
! See README file at anonymous FTP site GRI_MECH at CRVAX.SRI.COM or
!   WorldWideWeb home page at http://diesel.fsc.psu.edu/~gri_mech
!      for additional information, contacts, and disclaimer.
!
! Rearanged GRI-12 reaction order
!
!
! Reactions of H2/O2
!
 H+O2 = O+OH                              8.300E+13    0.000  14413.00
 O+H2 = H+OH                              5.000E+04    2.670   6290.00
 OH+H2 = H+H2O                            2.160E+08    1.510   3430.00
 OH+OH = O+H2O                            3.570E+04    2.400  -2110.00
 H+H+M = H2+M                             1.000E+18   -1.000      0.00
   H2/0.0/ H2O/0.0/ CH4/2.0/ CO2/0.0/ C2H6/3.00/ AR/0.63/
 H+H+H2 = H2+H2                           9.000E+16   -0.600      0.00
 H+H+H2O = H2+H2O                         6.000E+19   -1.250      0.00
 H+H+CO2 = H2+CO2                         5.500E+20   -2.000      0.00
 H+OH+M = H2O+M                           2.200E+22   -2.000      0.00
   H2/0.73/ H2O/3.65/ CH4/2.0/ C2H6/3.0/ AR/0.38/
 O+H+M = OH+M                             5.000E+17   -1.000      0.00
   H2/2.0/ H2O/6.0/ CH4/2.0/ CO/1.5/ CO2/2.0/ C2H6/3.0/ AR/0.7/
 O+O+M = O2+M                             1.200E+17   -1.000      0.00
   H2/ 2.4/ H2O/15.4/ CH4/ 2.0/ CO/ 1.75/ CO2/ 3.6/ C2H6/ 3.0/ AR/ 0.83/
 H+O2+M = HO2+M                           2.800E+18   -0.860      0.00
   O2/0.0/ H2O/0.0/ CO/0.75/ CO2/1.5/ C2H6/1.5/ N2/0.0/ AR/0.0/
 H+O2+O2 = HO2+O2                         3.000E+20   -1.720      0.00
 H+O2+H2O = HO2+H2O                       9.380E+18   -0.760      0.00
 H+O2+N2 = HO2+N2                         3.750E+20   -1.720      0.00
 H+O2+AR = HO2+AR                         7.000E+17   -0.800      0.00
 OH+OH(+M) = H2O2(+M)                     7.400E+13   -0.370      0.00
      LOW  /  2.300E+18   -0.900  -1700.00/
      TROE/  0.7346   94.00  1756.00  5182.00 /
   H2/2.0/ H2O/6.0/ CH4/2.0/ CO/1.5/ CO2/2.0/ C2H6/3.0/ AR/0.7/
!
! Reactions of HO2
!
 HO2+H = O+H2O                            3.970E+12    0.000    671.00
 HO2+H = O2+H2                            2.800E+13    0.000   1068.00
 HO2+H = OH+OH                            1.340E+14    0.000    635.00
 HO2+O = OH+O2                            2.000E+13    0.000      0.00
 HO2+OH = O2+H2O                          2.900E+13    0.000   -500.00
 HO2+HO2 = O2+H2O2                        1.300E+11    0.000  -1630.00
  DUPLICATE
 HO2+HO2 = O2+H2O2                        4.200E+14    0.000  12000.00
  DUPLICATE
!
! Reactions of H2O2
!
 H2O2+H = HO2+H2                          1.210E+07    2.000   5200.00
 H2O2+H = OH+H2O                          1.000E+13    0.000   3600.00
 H2O2+O = OH+HO2                          9.630E+06    2.000   4000.00
 H2O2+OH = HO2+H2O                        1.750E+12    0.000    320.00
  DUPLICATE
 H2O2+OH = HO2+H2O                        5.800E+14    0.000   9560.00
  DUPLICATE
!
! Reactions of CO/CO2
!
 CO+O+M = CO2+M                           6.020E+14    0.000   3000.00
   H2/2.0/ O2/6.0/ H2O/6.0/ CH4/2.0/ CO/1.5/ CO2/3.5/ C2H6/3.0/ AR/0.5/
 CO+OH = CO2+H                            4.760E+07    1.228     70.00
 CO+H2(+M) = CH2O(+M)                     4.300E+07    1.500  79600.00
      LOW  /  5.070E+27   -3.420  84350.00/
      TROE/  0.9320  197.00  1540.00 10300.00 /
 H2/2.0/ H2O/6.0/ CH4/2.0/ CO/1.5/ CO2/2.0/ C2H6/3.0/ AR/0.7/
 CO+O2 = CO2+O                            2.500E+12    0.000  47800.00
 CO+HO2 = CO2+OH                          1.500E+14    0.000  23600.00
!
! Reactions of C
!
 C+OH = CO+H                              5.000E+13    0.000      0.00
 C+O2 = CO+O                              5.800E+13    0.000    576.00
!
! Reactions of CH
!
 CH+H = C+H2                              1.100E+14    0.000      0.00
 CH+O = CO+H                              5.700E+13    0.000      0.00
 CH+OH = HCO+H                            3.000E+13    0.000      0.00
 CH+H2 = CH2+H                            1.107E+08    1.790   1670.00
 CH+H2O = CH2O+H                          5.710E+12    0.000   -755.00
 CH+O2 = HCO+O                            3.300E+13    0.000      0.00
 CH+CO(+M) = HCCO(+M)                     5.000E+13    0.000      0.00
      LOW  /  2.690E+28   -3.740   1936.00/
      TROE/  0.5757  237.00  1652.00  5069.00 /
    H2/2.0/ H2O/6.0/ CH4/2.0/ CO/1.5/ CO2/2.0/ C2H6/3.0/ AR/0.7/
 CH+CO2 = HCO+CO                          3.400E+12    0.000    690.00
!
! Reactions of HCO
!
 HCO+H(+M) = CH2O(+M)                     1.090E+12    0.480   -260.00
      LOW  /  1.350E+24   -2.570   1425.00/
      TROE/  0.7824  271.00  2755.00  6570.00 /
    H2/2.0/ H2O/6.0/ CH4/2.0/ CO/1.5/ CO2/2.0/ C2H6/3.0/ AR/0.7/
 HCO+H = CO+H2                            7.340E+13    0.000      0.00
 HCO+O = CO+OH                            3.000E+13    0.000      0.00
 HCO+O = CO2+H                            3.000E+13    0.000      0.00
 HCO+OH = CO+H2O                          5.000E+13    0.000      0.00
 HCO+M = CO+H+M                           1.870E+17   -1.000  17000.00
    H2/2.0/ H2O/12.0/ CH4/2.0/ CO/1.5/ CO2/2.0/ C2H6/3.0/
 HCO+O2 = CO+HO2                          7.600E+12    0.000    400.00
!
! Reactions of CH2(triplet)
!
 CH2+H(+M) = CH3(+M)                      2.500E+16   -0.800      0.00
      LOW  /  3.200E+27   -3.140   1230.00/
      TROE/  0.6800   78.00  1995.00  5590.00 /
    H2/2.0/ H2O/6.0/ CH4/2.0/ CO/1.5/ CO2/2.0/ C2H6/3.0/ AR/0.7/
 CH2+O = HCO+H                            8.000E+13    0.000      0.00
 CH2+OH = CH2O+H                          2.000E+13    0.000      0.00
 CH2+OH = CH+H2O                          1.130E+07    2.000   3000.00
 CH2+H2 = H+CH3                           5.000E+05    2.000   7230.00
!
! PRODUCTS CHANGED FROM GRI-MECH 1.2 to push H peak concentration up.
!
 CH2+O2 = CO2+H+H                         1.320E+13    0.000   1500.00
!CH2+O2 = HCO+OH                          1.320E+13    0.000   1500.00
 CH2+HO2 = CH2O+OH                        2.000E+13    0.000      0.00
 CH2+C = C2H+H                            5.000E+13    0.000      0.00
 CH2+CO(+M) = CH2CO(+M)                   8.100E+11    0.500   4510.00
      LOW  /  2.690E+33   -5.110   7095.00/
      TROE/  0.5907  275.00  1226.00  5185.00 /
 H2/2.0/ H2O/6.0/ CH4/2.0/ CO/1.5/ CO2/2.0/ C2H6/3.0/ AR/0.7/
 CH2+CH = C2H2+H                          4.000E+13    0.000      0.00
 CH2+CH2 = C2H2+H2                        3.200E+13    0.000      0.00
!
! Reactions of CH2(singlet)
!
 CH2*+N2 = CH2+N2                       1.500E+13    0.000    600.00
 CH2*+AR = CH2+AR                       9.000E+12    0.000    600.00
 CH2*+H = CH+H2                         3.000E+13    0.000      0.00
 CH2*+O = CO+H2                         1.500E+13    0.000      0.00
 CH2*+O = HCO+H                         1.500E+13    0.000      0.00
 CH2*+OH = CH2O+H                       3.000E+13    0.000      0.00
 CH2*+H2 = CH3+H                        7.000E+13    0.000      0.00
 CH2*+O2 = H+OH+CO                      2.800E+13    0.000      0.00
 CH2*+O2 = CO+H2O                       1.200E+13    0.000      0.00
 CH2*+H2O(+M) = CH3OH(+M)               2.000E+13    0.000      0.00
      LOW  /  2.700E+38   -6.300   3100.00/
      TROE/  0.1507  134.00  2383.00  7265.00 /
    H2/2.0/ H2O/6.0/ CH4/2.0/ CO/1.5/ CO2/2.0/ C2H6/3.0/
 CH2*+H2O = CH2+H2O                     3.000E+13    0.000      0.00
 CH2*+CO = CH2+CO                       9.000E+12    0.000      0.00
 CH2*+CO2 = CH2+CO2                     7.000E+12    0.000      0.00
 CH2*+CO2 = CH2O+CO                     1.400E+13    0.000      0.00
!
! Reactions of CH2O
!
 CH2O+H(+M) = CH2OH(+M)                   5.400E+11    0.454   3600.00
      LOW  /  1.270E+32   -4.820   6530.00/
      TROE/  0.7187  103.00  1291.00  4160.00 /
    H2/2.0/ H2O/6.0/ CH4/2.0/ CO/1.5/ CO2/2.0/ C2H6/3.0/
 CH2O+H(+M) = CH3O(+M)                    5.400E+11    0.454   2600.00
      LOW  /  2.200E+30   -4.800   5560.00/
      TROE/  0.7580   94.00  1555.00  4200.00 /
    H2/2.0/ H2O/6.0/ CH4/2.0/ CO/1.5/ CO2/2.0/ C2H6/3.0/
 CH2O+H = HCO+H2                          2.300E+10    1.050   3275.00
 CH2O+O = HCO+OH                          3.900E+13    0.000   3540.00
 CH2O+OH = HCO+H2O                        3.430E+09    1.180   -447.00
 CH2O+O2 = HCO+HO2                        1.000E+14    0.000  40000.00
 CH2O+HO2 = HCO+H2O2                      1.000E+12    0.000   8000.00
 CH2O+CH = CH2CO+H                        9.460E+13    0.000   -515.00
!
! Reactions of CH3
!
 CH3+H(+M) = CH4(+M)                      1.270E+16   -0.630    383.00
      LOW  /  2.477E+33   -4.760   2440.00/
      TROE/  0.7830   74.00  2941.00  6964.00 /
    H2/2.0/ H2O/6.0/ CH4/2.0/ CO/1.5/ CO2/2.0/ C2H6/3.0/ AR/0.7/
 CH3+O = CH2O+H                           8.430E+13    0.000      0.00
 CH3+OH(+M) = CH3OH(+M)                   6.300E+13    0.000      0.00
      LOW  /  2.700E+38   -6.300   3100.00/
      TROE/  0.2105   83.50  5398.00  8370.00 /
    H2/2.0/ H2O/6.0/ CH4/2.0/ CO/1.5/ CO2/2.0/ C2H6/3.0/
 CH3+OH = CH2+H2O                         5.600E+07    1.600   5420.00
 CH3+OH = CH2*+H2O                        2.501E+13    0.000      0.00
 CH3+O2 = O+CH3O                          2.675E+13    0.000  28800.00
 CH3+O2 = OH+CH2O                         3.600E+10    0.000   8940.00
 CH3+HO2 = CH4+O2                         1.000E+12    0.000      0.00
 CH3+HO2 = CH3O+OH                        2.000E+13    0.000      0.00
 CH3+H2O2 = CH4+HO2                       2.450E+04    2.470   5180.00
 CH3+C = C2H2+H                           5.000E+13    0.000      0.00
 CH3+CH = C2H3+H                          3.000E+13    0.000      0.00
 CH3+HCO = CH4+CO                         2.648E+13    0.000      0.00
 CH3+CH2O = CH4+HCO                       3.320E+03    2.810   5860.00
 CH3+CH2 = C2H4+H                         4.000E+13    0.000      0.00
 CH3+CH2* = C2H4+H                        1.200E+13    0.000   -570.00
 CH3+CH3(+M) = C2H6(+M)                   2.120E+16   -0.970    620.00
      LOW  /  1.770E+50   -9.670   6220.00/
      TROE/  0.5325  151.00  1038.00  4970.00 /
 H2/2.0/ H2O/6.0/ CH4/2.0/ CO/1.5/ CO2/2.0/ C2H6/3.0/ AR/0.7/
 CH3+CH3 = H+C2H5                         4.990E+12    0.100  10600.00
!
! Reactions of CH3O/CH2OH
!
 CH3O+H(+M) = CH3OH(+M)                   5.000E+13    0.000      0.00
      LOW  /  8.600E+28   -4.000   3025.00/
      TROE/  0.8902  144.00  2838.00 45569.00 /
    H2/2.0/ H2O/6.0/ CH4/2.0/ CO/1.5/ CO2/2.0/ C2H6/3.0/
 CH3O+H = CH2OH+H                         3.400E+06    1.600      0.00
 CH3O+H = CH2O+H2                         2.000E+13    0.000      0.00
 CH3O+H = CH3+OH                          3.200E+13    0.000      0.00
 CH3O+H = CH2*+H2O                        1.600E+13    0.000      0.00
 CH3O+O = CH2O+OH                         1.000E+13    0.000      0.00
 CH3O+OH = CH2O+H2O                       5.000E+12    0.000      0.00
 CH3O+O2 = CH2O+HO2                       4.280E-13    7.600  -3530.00
!
 CH2OH+H(+M) = CH3OH(+M)                  1.800E+13    0.000      0.00
      LOW  /  3.000E+31   -4.800   3300.00/
      TROE/  0.7679  338.00  1812.00  5081.00 /
    H2/2.0/ H2O/6.0/ CH4/2.0/ CO/1.5/ CO2/2.0/ C2H6/3.0/
 CH2OH+H = CH2O+H2                        2.000E+13    0.000      0.00
 CH2OH+H = CH3+OH                         1.200E+13    0.000      0.00
 CH2OH+H = CH2*+H2O                       6.000E+12    0.000      0.00
 CH2OH+O = CH2O+OH                        1.000E+13    0.000      0.00
 CH2OH+OH = CH2O+H2O                      5.000E+12    0.000      0.00
 CH2OH+O2 = CH2O+HO2                      1.800E+13    0.000    900.00
!
! Reactions of CH4
!
 CH4+H = CH3+H2                           6.600E+08    1.620  10840.00
 CH4+O = CH3+OH                           1.020E+09    1.500   8600.00
 CH4+OH = CH3+H2O                         1.000E+08    1.600   3120.00
 CH4+CH = C2H4+H                          6.000E+13    0.000      0.00
 CH4+CH2 = CH3+CH3                        2.460E+06    2.000   8270.00
 CH4+CH2* = CH3+CH3                       1.600E+13    0.000   -570.00
!
! Reactions of CH3OH
!
 CH3OH+H = CH2OH+H2                       1.700E+07    2.100   4870.00
 CH3OH+H = CH3O+H2                        4.200E+06    2.100   4870.00
 CH3OH+O = CH2OH+OH                       3.880E+05    2.500   3100.00
 CH3OH+O = CH3O+OH                        1.300E+05    2.500   5000.00
 CH3OH+OH = CH2OH+H2O                     1.440E+06    2.000   -840.00
 CH3OH+OH = CH3O+H2O                      6.300E+06    2.000   1500.00
 CH3OH+CH3 = CH2OH+CH4                    3.000E+07    1.500   9940.00
 CH3OH+CH3 = CH3O+CH4                     1.000E+07    1.500   9940.00
!
! Reactions of C2H
!
 C2H+H(+M) = C2H2(+M)                     1.000E+17   -1.000      0.00
      LOW  /  3.750E+33   -4.800   1900.00/
      TROE/  0.6464  132.00  1315.00  5566.00 /
    H2/2.0/ H2O/6.0/ CH4/2.0/ CO/1.5/ CO2/2.0/ C2H6/3.0/ AR/0.7/
 C2H+O = CH+CO                            5.000E+13    0.000      0.00
 C2H+OH = H+HCCO                          2.000E+13    0.000      0.00
 C2H+O2 = HCO+CO                          5.000E+13    0.000   1500.00
!
! Changed from GRI-MECH v1.2
! The rate coefficients of the following reaction updated, see notes
!
 C2H+H2 = H+C2H2                          4.900E+05    2.500    560.00
!C2H+H2 = H+C2H2                          4.070E+05    2.400    200.00
!
! Reactions of HCCO
!
 HCCO+H = CH2*+CO                         1.000E+14    0.000      0.00
 HCCO+O = H+CO+CO                         1.000E+14    0.000      0.00
 HCCO+O2 = OH+2CO                         1.600E+12    0.000    854.00
 HCCO+CH = C2H2+CO                        5.000E+13    0.000      0.00
 HCCO+CH2 = C2H3+CO                       3.000E+13    0.000      0.00
 HCCO+HCCO = C2H2+CO+CO                   1.000E+13    0.000      0.00
!
! Reactions of C2H2
!
 C2H2+H(+M) = C2H3(+M)                    5.600E+12    0.000   2400.00
      LOW  /  3.800E+40   -7.270   7220.00/
      TROE/  0.7507   98.50  1302.00  4167.00 /
    H2/2.0/ H2O/6.0/ CH4/2.0/ CO/1.5/ CO2/2.0/ C2H6/3.0/ AR/0.7/
 C2H2+O = HCCO+H                          1.020E+07    2.000   1900.00
 C2H2+O = C2H+OH                          4.600E+19   -1.410  28950.00
 C2H2+O = CH2+CO                          1.020E+07    2.000   1900.00
 C2H2+OH = CH2CO+H                        2.180E-04    4.500  -1000.00
 C2H2+OH = HCCOH+H                        5.040E+05    2.300  13500.00
 C2H2+OH = C2H+H2O                        3.370E+07    2.000  14000.00
 C2H2+OH = CH3+CO                         4.830E-04    4.000  -2000.00
!
! Reactions of CH2CO/HCCOH
!
 CH2CO+H = HCCO+H2                        5.000E+13    0.000   8000.00
 CH2CO+H = CH3+CO                         1.130E+13    0.000   3428.00
 CH2CO+O = HCCO+OH                        1.000E+13    0.000   8000.00
 CH2CO+O = CH2+CO2                        1.750E+12    0.000   1350.00
 CH2CO+OH = HCCO+H2O                      7.500E+12    0.000   2000.00
!
 HCCOH+H = CH2CO+H                        1.000E+13    0.000      0.00
!
! Reactions of C2H3
!
 C2H3+H(+M) = C2H4(+M)                    6.080E+12    0.270    280.00
      LOW  /  1.400E+30   -3.860   3320.00/
      TROE/  0.7820  207.50  2663.00  6095.00 /
    H2/2.0/ H2O/6.0/ CH4/2.0/ CO/1.5/ CO2/2.0/ C2H6/3.0/ AR/0.7/
 C2H3+H = C2H2+H2                         4.000E+13    0.000      0.00!Miller
 C2H3+O = CH2CO+H                         3.000E+13    0.000      0.00
 C2H3+OH = C2H2+H2O                       2.000E+13    0.000      0.00!Miller
!
! Change from GRI-MECH v 1.1
! Replace Gutman's k with those of MCLIN
! 
!C2H3+O2 = C2H2+HO2                       1.12E+8     0.913   200.0
 C2H3+O2 = C2H2+HO2                       3.37E+9     0.95     69.0
 C2H3+O2 = C2H3O+O                        2.50E+12    0.057    950.0 ! 20 t, 90 t
! 
!C2H3+O2 = C2H3O+O                        3.64E+11    0.270     101.0 ! 760 t

 C2H3+O2 = HCO+CH2O                       1.64E+21   -2.780   2523.0 ! 20 t, 90 t
!C2H3+O2 = HCO+CH2O                       4.58E+16   -1.390   1015.0 ! 760 t
!
!C2H3+O2 = HCO+CH2O                       3.980E+12    0.000   -240.00
!
! Reactions of C2H4
!
 C2H4(+M) = H2+C2H2(+M)                   8.000E+12    0.440  88770.00
      LOW  /  7.000E+50   -9.310  99860.00/
      TROE/  0.7345  180.00  1035.00  5417.00 /
    H2/2.0/ H2O/6.0/ CH4/2.0/ CO/1.5/ CO2/2.0/ C2H6/3.0/ AR/0.7/
 C2H4+H(+M) = C2H5(+M)                    1.080E+12    0.454   1820.00
      LOW  /  1.200E+42   -7.620   6970.00/
      TROE/  0.9753  210.00   984.00  4374.00 /
    H2/2.0/ H2O/6.0/ CH4/2.0/ CO/1.5/ CO2/2.0/ C2H6/3.0/ AR/0.7/
 C2H4+H = C2H3+H2                         1.325E+06    2.530  12240.00
 C2H4+O = CH3+HCO                         1.920E+07    1.830    220.00
 C2H4+OH = C2H3+H2O                       3.600E+06    2.000   2500.00
 C2H4+CH3 = C2H3+CH4                      2.270E+05    2.000   9200.00
!
! Reactions of C2H5
!
 C2H5+H(+M) = C2H6(+M)                    5.210E+17   -0.990   1580.00
      LOW  /  1.990E+41   -7.080   6685.00/
      TROE/  0.8422  125.00  2219.00  6882.00 /
    H2/2.0/ H2O/6.0/ CH4/2.0/ CO/1.5/ CO2/2.0/ C2H6/3.0/ AR/0.7/
 C2H5+H = C2H4+H2                         2.000E+12    0.000      0.00
 C2H5+O = CH3+CH2O                        1.320E+14    0.000      0.00
 C2H5+O2 = C2H4+HO2                       8.400E+11    0.000   3875.00
!
! Reactions of C2H6
!
 C2H6+H = C2H5+H2                         1.150E+08    1.900   7530.00
 C2H6+O = C2H5+OH                         8.980E+07    1.920   5690.00
 C2H6+OH = C2H5+H2O                       3.540E+06    2.120    870.00
 C2H6+CH2* = C2H5+CH3                     4.000E+13    0.000   -550.00
 C2H6+CH3 = C2H5+CH4                      6.140E+06    1.740  10450.00
!
!=========================================================================!
!                                                                         !
! C3-up chemistry from the present work - June 1994                       !
!                                                                         !
!=========================================================================!
!                                                                         !
! (4) C4 and higher "linear" species: H-abstraction by OH                 !
!                                                                         !
!     A refit to Liu's expression with n=2 (assumed equal to k(C2H4+OH)   !
!     gives C4H6 + OH = i-C4H5 + H2O 3.1E+6, 2.0, 430.0 (cal/mol)         !
!     Thus, each C-H to produce i-CxHy is 1.55E+06, 2.0, 430 (cal/mol)    !
!           each C-H to produce n-CxHy is 1.55E+06, 2.0,3430 (cal/mol)    !
!           with + 3cal/mol assumed.                                      !
!                                                                         !
! (5) C4 and higher "lineat species: H-abstraction by H                   !
!                                                                         !
!     k = k(C2H4 + H) per H atom for n-CxHy + H2 and                      !
!         E-3kcal/mol for i-CxHy + H2 products.                           !
!=========================================================================!
!
! C2O taken from Miller-Melius
!
 HCCO + OH = C2O + H2O            3.00E+13    0.0      0.0
 C2O + H = CH + CO                5.00E+13    0.0      0.0
 C2O + O = CO + CO                5.00E+13    0.0      0.0
 C2O + OH = CO + CO + H           2.00E+13    0.0      0.0
 C2O + O2 = CO + CO + O           2.00E+13    0.0      0.0
!
! C2H3O chemistry
!
 CH2CO + H = C2H3O                5.40E+11    0.454 1820.0  ! half of kinf(C2H4+H)
 C2H3O + H = CH2CO + H2           1.00E+13    0.0      0.0  ! Estimated
 C2H3O + O = CH2O + HCO           9.60E+06    1.83   220.0  ! half of k(C2H4+O)
 C2H3O + O = CH2CO + OH           1.00E+13    0.0      0.0  ! Estimated
 C2H3O + OH = CH2CO + H2O         5.00E+12    0.0      0.0  ! Estimated
!
 CH3 + HCCO = C2H4 + CO           5.00E+13    0.0      0.0  ! Guess
 CH3 + C2H = C3H3 + H             2.41E+13    0.0      0.0  ! Tsang-Hampson
 CH4 + C2H = C2H2 + CH3           1.81E+12    0.0    500.0  ! Tsang-Hampson
!
 C2H2 + CH = C3H2 + H             3.00E+13    0.0      0.0  ! Warnatz 83
!  
 C2H2 + CH2 = C3H3 + H            2.40E+13    0.0   6620.0  ! Bohland 86
 C2H2 + CH2* = C3H3 + H           4.00E+13    0.0      0.0  ! Estimated
!
!C2H2 + CH3 = AC3H4 + H        2.87E+21 -2.74 24800.0 !  20 t Westml
 C2H2 + CH3 = AC3H4 + H        2.87E+21 -2.74 24800.0 !  90 t Westml
!C2H2 + CH3 = AC3H4 + H        5.72E+20 -2.36 31500.0 ! 760 t Westml
!
!C2H2 + CH3 = PC3H4 + H        1.00E+13 -0.53 13400.0 !  20 t Westml
 C2H2 + CH3 = PC3H4 + H        1.00E+13 -0.53 13400.0 !  90 t Westml
!C2H2 + CH3 = PC3H4 + H        2.72E+18 -1.97 20200.0 ! 760 t Westml
!
 C2H2 + C2H = C4H2 + H            9.60E+13    0.0      0.0  ! See notes
!C2H2 + C2H = C4H2 + H            3.00E+13    0.0      0.0  ! Changed
!
!C2H2 + C2H = n-C4H3              1.10E+30   -6.30  2790.0  ! RRKM, 20 t
 C2H2 + C2H = n-C4H3              1.30E+30   -6.12  2510.0  ! RRKM, 90 t
!C2H2 + C2H = n-C4H3              4.50E+37   -7.68  7100.0  ! RRKM, 760 t
!
!C2H2 + C2H = i-C4H3              4.10E+33   -7.31  4600.0  ! RRKM, 20 t
 C2H2 + C2H = i-C4H3              1.60E+34   -7.28  4830.0  ! RRKM, 90 t
!C2H2 + C2H = i-C4H3              2.60E+44   -9.47 14650.0  ! RRKM, 760 t
!
!C2H3 + C2H2 = C4H4 + H            7.2E+13   -0.48   6100. ! 10 t
!C2H2 + C2H3 = C4H4 + H            5.00E+14  -0.71   6700. ! 20 t
 C2H2 + C2H3 = C4H4 + H            4.60E+16  -1.25   8400. ! 90 t
!C2H2 + C2H3 = C4H4 + H            2.00E+18  -1.68  10600. ! 760 t
!C2H3 + C2H2 = C4H4 + H            4.9E+16   -1.13  11800. ! 7600 t
!
!C2H3 + C2H2 = n-C4H5              1.1E+31   -7.14   5600. ! 10 t
!C2H2 + C2H3 = n-C4H5              1.1E+32   -7.33   6200. ! 20 t
 C2H2 + C2H3 = n-C4H5              2.4E+31   -6.95   5600. ! 90 t
!C2H2 + C2H3 = n-C4H5              9.3E+38   -8.76  12000. ! 760 t
!C2H3 + C2H2 = n-C4H5              8.1E+37   -8.09  13400. ! 7600 t
!
!C2H3 + C2H2 = i-C4H5              5.0E+34   -8.42   7900. ! 10 t
!C2H2 + C2H3 = i-C4H5              2.1E+36   -8.78   9100. ! 20 t
 C2H2 + C2H3 = i-C4H5              1.0E+37   -8.77   9800. ! 90 t
!C2H2 + C2H3 = i-C4H5              1.6E+46  -10.98  18600. ! 760 t
!C2H3 + C2H2 = i-C4H5              5.1E+53  -12.64  28800. ! 7600 t
!
 C2H4 + C2H = C4H4 + H            1.20E+13    0.0      0.0  ! Tsang
!
!C2H4 + C2H3 = C4H6 + H           7.4E+14    -0.66  8420.0  ! 20 t
 C2H4 + C2H3 = C4H6 + H           1.9E+17    -1.32 10600.0  ! 90 t
!C2H4 + C2H3 = C4H6 + H           2.8E+21    -2.44 14720.0  ! 760 t
!
 C2H2 + HCCO = C3H3 + CO          1.00E+11    0.0   3000.0  ! Miller-Bowman
!
! Too larger the reverse rate constant
 C2H4 + O2 = C2H3 + HO2           4.22E+13    0.0  60800.0  ! Tsang-Hampson +3.2kcal/mol
!
 C2H3 + H2O2 = C2H4 + HO2         1.21E+10    0.0   -596.0  ! Tsang-Hampson
 C2H3 + HCO = C2H4 + CO           2.50E+13    0.0      0.0  ! Guess
 C2H3 + CH3 = C2H2 + CH4          3.92E+11    0.0      0.0  ! Tsang-Hampson
!
!C2H3 + C2H3 = C4H6              7.0E+57  -13.82     17629.  ! RRKM 20 t
 C2H3 + C2H3 = C4H6              1.5E+52  -11.97     16056.  ! RRKM 90 t
!C2H3 + C2H3 = C4H6              1.5E+42   -8.84     12483.  ! RRKM 760 t
!
!C2H3 + C2H3 = i-C4H5 + H        1.5E+30   -4.95     12958.  ! RRKM 20 t
 C2H3 + C2H3 = i-C4H5 + H        7.2E+28   -4.49     14273.  ! RRKM 90 t
!C2H3 + C2H3 = i-C4H5 + H        1.2E+22   -2.44     13654.  ! RRKM 760 t
!
!C2H3 + C2H3 = n-C4H5 + H        1.1E+24   -3.28     12395.  ! RRKM 20 t
 C2H3 + C2H3 = n-C4H5 + H        4.6E+24   -3.38     14650.  ! RRKM 90 t
!C2H3 + C2H3 = n-C4H5 + H        2.4E+20   -2.04     15361.  ! RRKM 760 t
!
! Reactions of C3Hx species
!
 C3H2 + O = C2H2 + CO             6.80E+13    0.0      0.0  ! Warnatz 82
 C3H2 + OH = HCO + C2H2           6.80E+13    0.0      0.0  ! Warnatz 82
 C3H2 + O2 = HCCO + CO + H        5.00E+13    0.0      0.0  ! Miller-Melius
 C3H2 + CH = C4H2 + H             5.00E+13    0.0      0.0  ! Estimated
 C3H2 + CH2 = n-C4H3 + H          5.00E+13    0.0      0.0  ! Guess
 C3H2 + CH3 = C4H4 + H            5.00E+12    0.0      0.0  ! Guess
 C3H2 + HCCO = n-C4H3 + CO        1.00E+13    0.0      0.0  ! Guess
!
 C3H3 + H (+M) = AC3H4 (+M)       3.00E+13    0.0      0.0  ! Est. See notes
     LOW/ 1.4E+31 -5.00 -6000.0/
     TROE / 0.5 2000. 10.0 10000.0/
   H2/2.0/ H2O/6.0/ CH4/2.0/ CO/1.5/ CO2/2.0/ C2H6/3.0/ AR/0.7/
 C3H3 + H (+M) = PC3H4 (+M)       3.00E+13    0.0      0.0  ! Est. See notes
     LOW/ 1.4E+31 -5.00 -6000.0/
     TROE / 0.5 2000. 10.0 10000.0/
   H2/2.0/ H2O/6.0/ CH4/2.0/ CO/1.5/ CO2/2.0/ C2H6/3.0/ AR/0.7/
 C3H3 + O = CH2O + C2H            2.00E+13    0.0      0.0  ! Miller-Bowman
!
! Products reassigned to avoid C3H3 and C3H2 build-up
!
 C3H3 + OH = C3H2 + H2O           2.00E+13    0.0      0.0  ! Miller-Bowman
 C3H3 + OH = C2H3 + HCO           4.00E+13    0.0      0.0  ! Guess
 C3H3 + O2 = CH2CO + HCO          3.00E+10    0.0   2878.0  ! Gutman
 C3H3 + HO2 = AC3H4 + O2          1.00E+12    0.0      0.0  ! Guess
 C3H3 + HO2 = PC3H4 + O2          1.00E+12    0.0      0.0  ! Guess
 C3H3 + HCO = AC3H4 + CO          2.50E+13    0.0      0.0  ! Guess
 C3H3 + HCO = PC3H4 + CO          2.50E+13    0.0      0.0  ! Guess
!
 C3H3 + CH = i-C4H3 + H           5.00E+13    0.0      0.0  ! Guess
 C3H3 + CH2 = C4H4 + H            2.00E+13    0.0      0.0  ! Guess
 i-C4H5 + H = C3H3 + CH3          2.00E+13    0.0   2000.0  ! Guess
 C3H3 + CH3 (+M) = C4H612 (+M)    1.50E+13    0.0      0.0  ! kinf assumed falloff=C2H3+CH3 TS1 600 cm-1
                         LOW /2.60E+58 -11.94 9770.0/
                         TROE /0.175 1340.6 60000.0 9769.8/
   H2/2.0/ H2O/6.0/ CH4/2.0/ CO/1.5/ CO2/2.0/ C2H6/3.0/ AR/0.7/
!C3H3 + C3H3 =>A1                 1.00E+11    0.0      0.0  ! Guess, 20 t
 C3H3 + C3H3 =>A1                 2.50E+12    0.0      0.0  ! Guess, 90 t * 2.5
!C3H3 + C3H3 =>A1                 5.00E+12    0.0      0.0  ! Guess, 760 t * 2.5 
!
!C3H3 + C3H3 = A1- + H            5.00E+12    0.0      0.0  ! Model A  
!C3H3 + C3H3 = A1- + H            3.00E+13    0.0      0.0  ! Model B  
!
! Joerg devided by 2
 AC3H4 + H = C3H3 + H2            5.75E+07    1.9   7530.0  ! = Above
 AC3H4 + O = CH2CO + CH2          2.00E+07    1.8   1000.0  ! Est. See notes
 AC3H4 + OH = C3H3 + H2O          5.30E+06    2.0   2000.0  ! Refit to Liu(note
 AC3H4 + C2H = C2H2 + C3H3        1.00E+13    0.0      0.0  ! Guess
!
 PC3H4 + H = C3H3 + H2            1.15E+08    1.9   7530.0  ! = C2H6 + H
!PC3H4 + H = CH3 + C2H2           1.30E+05    2.5   1000.0  ! Hidaka
 PC3H4 + OH = C3H3 + H2O          3.54E+06    2.12   870.0  ! = C2H6 + OH
 PC3H4 + C2H = C2H2 + C3H3        1.00E+13    0.0      0.0  ! Guess
!
! Reactions of C4H and C4H2
!
 C4H + H (+M) = C4H2 (+M)                     1.000E+17   -1.000      0.00
      LOW  /  3.750E+33   -4.800   1900.00/
      TROE/  0.6464  132.00  1315.00  5566.00 /
   H2/2.0/ H2O/6.0/ CH4/2.0/ CO/1.5/ CO2/2.0/ C2H6/3.0/ AR/0.7/
!
 C4H + C2H2 = C6H2 + H            9.60E+13    0.0      0.0  ! = C2H2 + C2H
!C4H + C2H2 = C6H2 + H            3.00E+13    0.0      0.0  ! = C2H2 + C2H
!
 C4H + O = C2H + C2O              5.00E+13    0.0      0.0  ! = C2H + O
 C4H + O2 = HCCO + C2O            5.00E+13    0.0   1500.0  ! = C2H + O2
 C4H + H2 = H + C4H2              4.90E+05    2.5    560.0  ! = C2H + H2
!
!C4H2 + H = n-C4H3                1.70E+49  -11.67 12804.0  ! RRKM, 20 t
 C4H2 + H = n-C4H3                3.30E+50  -11.80 15010.0  ! RRKM, 90 t
!C4H2 + H = n-C4H3                1.10E+42   -8.72 15300.0  ! RRKM, 760 t
!